Circuit: * C:\Users\profil\Desktop\AASE_rduhr_lderycke\simul.asc

Limiting rise time of source v1 to 5e-08
Limiting fall time of source v1 to 5e-08
WARNING: Specified period is not longer than the sum of Trise, Tfall, and Ton for v2.  Increasing period to 1e-06
Limiting rise time of source v2 to 1.90582e-22
Limiting fall time of source v2 to 1.90582e-22
Direct Newton iteration for .op point succeeded.
Ignoring empty pin current: Ix(u1:1)
Ignoring empty pin current: Ix(u2:1)
Ignoring empty pin current: Ix(u3:1)
Ignoring empty pin current: Ix(u4:1)
Ignoring empty pin current: Ix(u1:1)
Ignoring empty pin current: Ix(u2:1)
Ignoring empty pin current: Ix(u3:1)
Ignoring empty pin current: Ix(u4:1)

Date: Wed Apr  3 17:13:18 2024
Total elapsed time: 64.950 seconds.

tnom = 27
temp = 27
method = modified trap
totiter = 12989965
traniter = 12989962
tranpoints = 4411349
accept = 2910980
rejected = 1500369
matrix size = 44
fillins = 1
solver = Normal
Avg thread counts: 1.0/1.0/1.0/1.0
Matrix Compiler1: 876 bytes object code size  0.3/0.3/[0.2]
Matrix Compiler2: 2.19 KB object code size  0.2/0.5/[0.2]

